LTspice 24.0.9 for Windows
Circuit: * C:\Users\Admin\cap-fit\test\MultiCapModel.asc
Start Time: Wed Feb 28 21:56:57 2024
solver = Normal
Maximum thread count: 8
tnom = 27
temp = 27
method = modified trap
.OP point found by inspection.
Total elapsed time: 0.043 seconds.

